/*--------------------------------*- C++ -*----------------------------------*\
| =========                 |                                                 |
| \\      /  F ield         | OpenFOAM: The Open Source CFD Toolbox           |
|  \\    /   O peration     | Version:  2112                                  |
|   \\  /    A nd           | Website:  www.openfoam.com                      |
|    \\/     M anipulation  |                                                 |
\*---------------------------------------------------------------------------*/
FoamFile
{
    version     2.0;
    format      ascii;
    arch        "LSB;label=32;scalar=64";
    class       polyBoundaryMesh;
    location    "constant/polyMesh";
    object      boundary;
}
// * * * * * * * * * * * * * * * * * * * * * * * * * * * * * * * * * * * * * //

6
(
    inlet
    {
        type            patch;
        nFaces          200;
        startFace       158560;
    }
    outlet
    {
        type            patch;
        nFaces          200;
        startFace       158760;
    }
    bottom
    {
        type            symmetryPlane;
        inGroups        1(symmetryPlane);
        nFaces          400;
        startFace       158960;
    }
    top
    {
        type            symmetryPlane;
        inGroups        1(symmetryPlane);
        nFaces          400;
        startFace       159360;
    }
    frontAndBack
    {
        type            empty;
        inGroups        1(empty);
        nFaces          159200;
        startFace       159760;
    }
    squareCylinder
    {
        type            wall;
        inGroups        1(wall);
        nFaces          80;
        startFace       318960;
    }
)

// ************************************************************************* //
