FoamFile
{
    version     2.0;
    format      ascii;
    class       volScalarField;
    object      U;
}

dimensions [0 2 -1 0 0 0 0];

internalField uniform 0;

boundaryField
{
    inlet
    {
        type fixedValue;
        value uniform 0;
    }
    outlet
    {
        type zeroGradient;
    }
    bottom
    {
        type symmetryPlane;
    }
    top
    {
        type symmetryPlane;
    }
    frontAndBack
    {
        type empty;
    }
    squareCylinder
    {
        type fixedValue;
        value uniform 0;
    }
}