FoamFile
{
    version 2.0;
    format  ascii;
    class   volScalarField;
    object  nut;
}

dimensions [0 2 -1 0 0 0 0];

internalField uniform 0;

boundaryField
{
    moving_wall
    {
        type  fixedValue;
        value uniform 0;
    }
    fixed_wall
    {
        type  fixedValue;
        value uniform 0;
    }
}